*SPEF "IEEE 1481-1999"
*DESIGN "top"
*DIVIDER /
*DELIMITER :
*BUS_DELIMITER [ ]
*T_UNIT 1 PS
*C_UNIT 1 FF
*R_UNIT 1 OHM
*L_UNIT 1 HENRY

*NAME_MAP
*1 n1
*2 n2
*3 g1
*4 g2
*5 g3

*D_NET *1 60.000000
*CONN
*I *3:Y O
*I *4:A I
*CAP
1 *3:Y 30.000000
2 *1 30.000000
3 *1 *2 20.000000
*RES
1 *1 *3:Y 250.000000
2 *1 *4:A 250.000000
*END

*D_NET *2 60.000000
*CONN
*I *4:Y O
*I *5:A I
*CAP
1 *4:Y 30.000000
2 *2 30.000000
*RES
1 *2 *4:Y 250.000000
2 *2 *5:A 250.000000
*END
